<?xml version="1.0" encoding="UTF-8"?>
<flow xmlns="http://www.springframework.org/schema/webflow"
    xmlns:xsi="http://www.w3.org/2001/XMLSchema-instance"
    xsi:schemaLocation="http://www.springframework.org/schema/webflow http://www.springframework.org/schema/webflow/spring-webflow-2.4.xsd">
    
    <var name="form" class="io.tednology.Form"/>
    
    <on-start>
        <evaluate expression="new io.tednology.NotSerializable()" result="flowScope.notSerializable"/>
    </on-start>
    
    <view-state id="main" view="/bug" model="form">
        <on-entry>
            <evaluate expression="form.setNotSerializable(notSerializable)"/>
        </on-entry>
        <transition on="back" to="exit" bind="false" validate="false"/>
    </view-state>
    
    <end-state id="exit" view="redirect:/"/>
    
</flow>